@<TRIPOS>MOLECULE
****
48 51 1 0 0
SMALL
USER_CHARGES


@<TRIPOS>ATOM
      1 C          -4.5159   -0.6558   -0.1622 C.2       1     ****    0.0000
      2 C          -4.8841    0.6457   -0.3438 C.2       1     ****    0.0000
      3 C          -5.3995   -1.6588   -0.4154 C.ar      1     ****    0.0000
      4 C          -3.2385   -0.9977    0.1559 C.ar      1     ****    0.0000
      5 C          -3.8324    1.6464   -0.8415 C.3       1     ****    0.0000
      6 C          -6.1573    1.0975   -0.1649 C.ar      1     ****    0.0000
      7 C          -5.3549   -2.8353    0.2454 C.ar      1     ****    0.0000
      8 C          -6.2297   -3.8249    0.0083 C.ar      1     ****    0.0000
      9 C          -7.2012   -3.6956   -0.9085 C.ar      1     ****    0.0000
     10 C          -7.2565   -2.5323   -1.5751 C.ar      1     ****    0.0000
     11 C          -6.3811   -1.5436   -1.3350 C.ar      1     ****    0.0000
     12 C          -2.4511   -0.2318    0.9380 C.ar      1     ****    0.0000
     13 C          -1.1879   -0.5665    1.2433 C.ar      1     ****    0.0000
     14 C          -0.6326   -1.6976    0.7817 C.ar      1     ****    0.0000
     15 C          -1.4003   -2.4727    0.0010 C.ar      1     ****    0.0000
     16 C          -2.6625   -2.1311   -0.3004 C.ar      1     ****    0.0000
     17 C          -6.5815    2.2808   -0.6613 C.ar      1     ****    0.0000
     18 C          -7.8296    2.7426   -0.4829 C.ar      1     ****    0.0000
     19 C          -8.7146    2.0360    0.2313 C.ar      1     ****    0.0000
     20 C          -8.3205    0.8762    0.7720 C.ar      1     ****    0.0000
     21 C          -7.0684    0.4318    0.5795 C.ar      1     ****    0.0000
     22 N          -3.7092    2.8517    0.0026 N.ar      1     ****    0.0000
     23 C          -4.0899    2.9724    1.2049 C.ar      1     ****    0.0000
     24 N          -3.8416    4.1397    1.6282 N.ar      1     ****    0.0000
     25 C          -3.2962    4.7386    0.6526 C.ar      1     ****    0.0000
     26 C          -3.1965    3.9315   -0.4144 C.ar      1     ****    0.0000
     27 O          -8.0936   -4.6923   -1.1534 O.3       1     ****    0.0000
     28 O           0.6463   -2.0493    1.0829 O.3       1     ****    0.0000
     29 H          -2.8228    1.2088   -0.9956 H         1     ****    0.0000
     30 H          -4.1098    1.9280   -1.8845 H         1     ****    0.0000
     31 H          -4.6214   -3.0124    1.0511 H         1     ****    0.0000
     32 H          -6.1623   -4.7616    0.5874 H         1     ****    0.0000
     33 H          -8.0353   -2.3930   -2.3441 H         1     ****    0.0000
     34 H          -6.4794   -0.6394   -1.9593 H         1     ****    0.0000
     35 H          -2.8360    0.6894    1.3987 H         1     ****    0.0000
     36 H          -0.5926    0.0928    1.8975 H         1     ****    0.0000
     37 H          -0.9748   -3.4032   -0.4125 H         1     ****    0.0000
     38 H          -3.1911   -2.8104   -0.9912 H         1     ****    0.0000
     39 H          -5.9335    2.9302   -1.2696 H         1     ****    0.0000
     40 H          -8.1330    3.7077   -0.9239 H         1     ****    0.0000
     41 H          -9.7390    2.4118    0.3882 H         1     ****    0.0000
     42 H          -9.0253    0.2992    1.3947 H         1     ****    0.0000
     43 H          -6.8169   -0.4976    1.1149 H         1     ****    0.0000
     44 H          -4.5673    2.1825    1.7936 H         1     ****    0.0000
     45 H          -2.9627    5.7829    0.7096 H         1     ****    0.0000
     46 H          -2.7905    4.0982   -1.4162 H         1     ****    0.0000
     47 H          -8.7142   -4.4002   -1.8406 H         1     ****    0.0000
     48 H           0.8493   -2.8976    0.6561 H         1     ****    0.0000
@<TRIPOS>BOND
     1     1     2     2
     2     1     3     1
     3     1     4     1
     4     2     5     1
     5     2     6     1
     6     3     7     1
     7     3    11     2
     8     4    12     1
     9     4    16     2
    10     5    22     1
    11     5    29     1
    12     5    30     1
    13     6    17     1
    14     6    21     2
    15     7     8     2
    16     7    31     1
    17     8     9     1
    18     8    32     1
    19     9    10     2
    20     9    27     1
    21    10    11     1
    22    10    33     1
    23    11    34     1
    24    12    13     2
    25    12    35     1
    26    13    14     1
    27    13    36     1
    28    14    15     2
    29    14    28     1
    30    15    16     1
    31    15    37     1
    32    16    38     1
    33    17    18     2
    34    17    39     1
    35    18    19     1
    36    18    40     1
    37    19    20     2
    38    19    41     1
    39    20    21     1
    40    20    42     1
    41    21    43     1
    42    22    23     1
    43    22    26     1
    44    23    24     2
    45    23    44     1
    46    24    25     1
    47    25    26     2
    48    25    45     1
    49    26    46     1
    50    27    47     1
    51    28    48     1
