REMARK  7 active torsions:
REMARK  status: ('A' for Active; 'I' for Inactive)
REMARK    1  A    between atoms: C_1  and  C_3 
REMARK    2  A    between atoms: C_1  and  C_4 
REMARK    3  A    between atoms: C_2  and  C_5 
REMARK    4  A    between atoms: C_2  and  C_6 
REMARK    5  A    between atoms: C_5  and  N_22 
REMARK    6  A    between atoms: C_9  and  O_27 
REMARK    7  A    between atoms: C_14  and  O_28 
ROOT
HETATM    1  C   ***     1      -9.989  48.666 332.916  1.00  0.00    -0.007 C 
HETATM    2  C   ***     1     -10.992  48.592 331.993  1.00  0.00    -0.018 C 
ENDROOT
BRANCH   1   3
HETATM    3  C   ***     1      -8.747  48.199 332.617  1.00  0.00    -0.024 A 
HETATM    4  C   ***     1      -8.263  48.188 331.357  1.00  0.00     0.015 A 
HETATM    5  C   ***     1      -7.040  47.719 331.064  1.00  0.00     0.037 A 
HETATM    6  C   ***     1      -6.229  47.232 332.016  1.00  0.00     0.065 A 
HETATM    7  C   ***     1      -6.697  47.237 333.274  1.00  0.00     0.037 A 
HETATM    8  C   ***     1      -7.919  47.709 333.564  1.00  0.00     0.015 A 
BRANCH   6   9
HETATM    9  O   ***     1      -4.993  46.753 331.713  1.00  0.00    -0.361 OA
HETATM   10  H   ***     1      -4.849  46.831 330.756  1.00  0.00     0.217 HD
ENDBRANCH   6   9
ENDBRANCH   1   3
BRANCH   1  11
HETATM   11  C   ***     1     -10.160  49.307 334.104  1.00  0.00    -0.024 A 
HETATM   12  C   ***     1     -11.334  49.316 334.766  1.00  0.00     0.015 A 
HETATM   13  C   ***     1     -11.502  49.957 335.934  1.00  0.00     0.037 A 
HETATM   14  C   ***     1     -10.497  50.631 336.513  1.00  0.00     0.065 A 
HETATM   15  C   ***     1      -9.321  50.633 335.869  1.00  0.00     0.037 A 
HETATM   16  C   ***     1      -9.160  49.991 334.701  1.00  0.00     0.015 A 
BRANCH  14  17
HETATM   17  O   ***     1     -10.653  51.284 337.696  1.00  0.00    -0.361 OA
HETATM   18  H   ***     1      -9.811  51.700 337.940  1.00  0.00     0.217 HD
ENDBRANCH  14  17
ENDBRANCH   1  11
BRANCH   2  19
HETATM   19  C   ***     1     -12.035  49.716 331.947  1.00  0.00     0.169 C 
BRANCH  19  20
HETATM   20  N   ***     1     -13.431  49.239 332.016  1.00  0.00    -0.346 N 
HETATM   21  C   ***     1     -13.822  48.113 332.446  1.00  0.00     0.209 A 
HETATM   22  N   ***     1     -15.082  48.023 332.357  1.00  0.00    -0.255 NA
HETATM   23  C   ***     1     -15.460  49.127 331.861  1.00  0.00     0.135 A 
HETATM   24  C   ***     1     -14.414  49.935 331.628  1.00  0.00     0.111 A 
ENDBRANCH  19  20
ENDBRANCH   2  19
BRANCH   2  25
HETATM   25  C   ***     1     -11.084  47.600 331.064  1.00  0.00    -0.027 A 
HETATM   26  C   ***     1     -11.861  47.710 329.963  1.00  0.00     0.012 A 
HETATM   27  C   ***     1     -11.970  46.735 329.045  1.00  0.00     0.001 A 
HETATM   28  C   ***     1     -11.310  45.581 329.205  1.00  0.00     0.000 A 
HETATM   29  C   ***     1     -10.560  45.420 330.303  1.00  0.00     0.001 A 
HETATM   30  C   ***     1     -10.464  46.407 331.207  1.00  0.00     0.012 A 
ENDBRANCH   2  25
TORSDOF 7
